tags:
  - dynamic routes
  - controllers
  - rspec
  - capybara
  - mvc
languages:
  - ruby
type: 
  - lab
resources: 2
parent_template: git@github.com:learn-co-curriculum/rails-dynamic-request-lab.git
